OAQABAAAAAAAm-06blBE1TpVMil8KPQ41n38un-e8kGNAw-wmrPgOmO9B0NwZDMEaNub0gCaTEGdjazYGD9Dn2M6Qv0El9VeuilQjN2uAyoe06L3ohyRKbZnHHX_AhTnkBUNykC3zeSKZHh3DZhgAL97oPGIxs5-yXyvws_ypszJLZ2_Y6WQAfG-lDY6TBw_HlUnZGLIf9TinpcY2GjAOnLPmY1Lm1Kp5aC5MJz0r0DI2ILYGTU39ae09YZ571PDK8ok6S_9t7jeQ95wOFhswN5ZlZBBpvFf8o2_kgkXEev1MHolsKBKX57jT5GgNYUq0a34wV_XXzHNG9Mo-xI-CFX-5us_JR-P2sq2ZqbZV1ZGhqwbgKSbNtjgDQp1J9yvoyqmdpezFxVzwS6zOj2uSWJAjDvJ9c_3ElKfFdBZVxrDp5dvl85TUl7FF9sujZ-wk1biryZJWbe8n_jrhZJDIPuxQU7qHqVtg9Q5J7eW_SVdtdKBcMdcuCnf9yH27oOR1CkUqF-EHPR4iLW1F-SI5yhCBuNHKGQu0AMJ2zfwrD1e3fIZd57k_ZUevJbZ1Qbjo5sKAite34JoLb-S5zMlYuQdibANIdwPx73goN0r9Gpd8bcpfOl0DMYJjHE1nF34UKJcrdmdbHCBYz46-Du5vd6hP1JEikGu35P_pPg51f-BKVjEWtzRkbKSArEy7ivWGfoLqXWjH0qP3iVsg_npezin0JiNG3VPTzWy1LpdLHxgpiWM5g7y7LzuY79JCG_xn3wbCnFJzZzd5_8SyQ1EzXr7Sph7qlixnsBsVZtxCVRidP8IwWeK1J5wg_FqhJ5QYxYiRmsQd8KKhHDlxJaz6srjnhYJ6cHe8WjTthB3Z6hApy-eaLAv2QSAA